Version 4
SHEET 1 2824 79404
WIRE 256 -80 256 -128
WIRE -208 80 -208 32
WIRE -32 80 -32 48
WIRE -352 96 -352 64
WIRE -80 96 -96 96
WIRE 256 96 256 0
WIRE 336 96 256 96
WIRE 400 96 336 96
WIRE 480 96 400 96
WIRE 256 128 256 96
WIRE 400 144 400 96
WIRE 480 160 480 96
WIRE -352 208 -352 176
WIRE -208 208 -208 160
WIRE -176 208 -208 208
WIRE -96 208 -96 96
WIRE -32 208 -32 176
WIRE 16 208 -32 208
WIRE 128 208 96 208
WIRE 160 208 128 208
WIRE 208 208 160 208
WIRE 160 224 160 208
WIRE -208 240 -208 208
WIRE -32 240 -32 208
WIRE 256 272 256 224
WIRE 400 272 400 208
WIRE 400 272 256 272
WIRE 480 304 480 240
WIRE -352 320 -368 320
WIRE -256 320 -272 320
WIRE -96 320 -96 208
WIRE -80 320 -96 320
WIRE -368 336 -368 320
WIRE -32 368 -32 336
WIRE 160 368 160 304
WIRE 256 368 256 272
WIRE -368 448 -368 416
WIRE -208 448 -208 336
FLAG 160 368 0
FLAG -32 368 0
FLAG -32 48 VBAT
FLAG -368 448 0
FLAG -208 448 0
FLAG -208 32 VBAT
FLAG 256 -128 VBAT
FLAG 336 96 LOAD
FLAG 128 208 GATE_DRIVE
FLAG -352 64 VBAT
FLAG -352 208 0
FLAG 256 448 0
FLAG 480 304 0
SYMBOL res 112 192 R90
WINDOW 0 0 56 VBottom 2
WINDOW 3 32 56 VTop 2
SYMATTR InstName R3
SYMATTR Value 10
SYMBOL res 176 320 R180
WINDOW 0 36 76 Left 2
WINDOW 3 36 40 Left 2
SYMATTR InstName R4
SYMATTR Value 5k
SYMBOL nmos -80 240 R0
SYMATTR InstName M2
SYMATTR Value 2N7002P
SYMATTR Prefix X
SYMBOL pmos -80 176 M180
SYMATTR InstName M3
SYMATTR Value BSS84P
SYMATTR Prefix X
SYMBOL res -80 192 R90
WINDOW 0 0 56 VBottom 2
WINDOW 3 32 56 VTop 2
SYMATTR InstName R1
SYMATTR Value 333
SYMBOL nmos -256 240 R0
SYMATTR InstName M4
SYMATTR Value 2N7002P
SYMATTR Prefix X
SYMBOL voltage -368 320 R0
WINDOW 123 0 0 Left 2
WINDOW 39 24 124 Left 2
SYMATTR SpiceLine Rser=.5
SYMATTR InstName V2
SYMATTR Value PULSE(0 5 0 1n 1n 5m 10m 1)
SYMBOL res -224 64 R0
SYMATTR InstName R2
SYMATTR Value 5k
SYMBOL res 240 -96 R0
SYMATTR InstName R5
SYMATTR Value 1
SYMBOL diode 416 208 R180
WINDOW 0 24 64 Left 2
WINDOW 3 24 0 Left 2
SYMATTR InstName D1
SYMBOL res -256 304 R90
WINDOW 0 0 56 VBottom 2
WINDOW 3 32 56 VTop 2
SYMATTR InstName R6
SYMATTR Value 5k
SYMBOL voltage -352 80 R0
WINDOW 123 0 0 Left 2
WINDOW 39 0 0 Left 2
SYMATTR InstName V3
SYMATTR Value 7V
SYMBOL nmos 208 128 R0
SYMATTR InstName M1
SYMATTR Value STB16NF06LT4
SYMATTR Prefix X
SYMBOL res 240 352 R0
SYMATTR InstName R7
SYMATTR Value .1m
SYMBOL res 464 144 R0
SYMATTR InstName R8
SYMATTR Value 1 M
TEXT 568 80 Left 2 !.inc mosfet_models.txt
TEXT 560 120 Left 2 !.tran 0 10ms 0 uic
